     30 'GENROU' 1     6.7000      0.35000E-01  0.41000      0.70000E-01
          6.0500       0.0000       1.8700       1.7400      0.37000
         0.46700      0.2240      0.23000      0.13750      0.40700      /
     30 'IEEET1' 1     0.0000       5.0000      0.60000E-01   5.2000
         -4.1600       1.0000      0.83000      0.40000E-01   1.0000
          0.0000       2.8000      0.41000E-01   3.8000      0.36800    /
     30 'GAST'   1    0.50000E-01  0.40000      0.10000       3.0000
         0.90000       2.0000      0.90000      0.31000       0.0000      /
     31 'GENROU' 1     3.8260      0.22500E-01  0.50840      0.22500E-01
          3.4100       0.0000       1.7241       1.6587      0.25860
         0.45240      0.20290      0.14500      0.14000      0.48000      /
     32 'GENROU' 1     6.7000      0.35000E-01  0.41000      0.70000E-01
          6.0500       0.0000       1.8700       1.7400      0.37000
         0.46700      0.28050      0.23000      0.13750      0.40700      /
     32 'IEEET1' 1     0.0000       5.0000      0.60000E-01   5.2000
         -4.1600       1.0000      0.83000      0.80000E-01   1.0000
          0.0000       2.8000      0.41000E-01   3.8000      0.36800    /
     32 'IEESGO' 1     0.0000       0.0000      0.20000E-01  0.67300
          3.0000      0.45000       14.300      0.70000       1.0000
          10.000      0.50000      /
     34 'GENROU' 1     3.8260      0.31600E-01  0.50840      0.59200E-01
          3.4100       0.0000       1.7241       1.6587      0.25860
         0.45240      0.20290      0.14500      0.12000      0.45000      /
     34 'IEEET1' 1     0.0000       40.000      0.20000E-01   5.2000
         -4.1600       1.0000      0.83000      0.30000E-01   1.0000
          0.0000       2.8000      0.41000E-01   3.8000      0.36800    /
     34 'TGOV1'  1    0.50000E-01  0.49000       27.000      0.40000
          2.1000       7.0000       0.0000      /
     35 'GENROU' 1     5.3180      0.53000E-01  0.97000      0.39000E-01
          5.0160       0.0000       1.8340       1.7980      0.41900
         0.83000      0.31400      0.26000      0.83300E-01  0.36200      /
     35 'IEEET1' 1     0.0000       5.0000      0.20000E-01   5.2000
         -4.1600       1.0000      0.83000      0.75400E-01   1.2460
          0.0000       2.8000      0.41000E-01   3.8000      0.36800    /
     35 'TGOV1'  1    0.50000E-01  0.49000       33.000      0.40000
          2.1000       7.0000       0.0000      /
     36 'GENROU' 1     3.8000      0.34000E-01  0.52000      0.58200E-01
          3.1410       0.0000       1.8400       1.7700      0.28000
         0.47800      0.21500      0.15500      0.12310      0.47370      /
     36 'IEEET1' 1     0.0000       40.000      0.20000E-01   5.2000
         -4.1600       1.0000      0.83000      0.30000E-01   1.0000
          0.0000       2.8000      0.41000E-01   3.8000      0.36800    /
     36 'IEEEG1' 1          0           0        20.000       0.0000
          0.0000      0.10000      0.10000     -0.50000       10.000
         0.42000      0.34700      0.30000       0.0000       7.0000
         0.20000       0.0000      0.60000      0.50000       0.0000
          0.0000       0.0000       0.0000    /
     37 'GENROU' 1     3.8000      0.34000E-01  0.52000      0.58200E-01
          3.1410       0.0000       1.8400       1.7700      0.28000
         0.47800      0.21500      0.15500      0.12310      0.47370      /
     37 'IEEET1' 1     0.0000       5.0000      0.20000E-01   5.2000
         -4.1600       1.0000      0.83000      0.85400E-01   1.2600
          0.0000       2.8000      0.41000E-01   3.8000      0.36800    /
     37 'IEEEG1' 1          0           0        20.000       0.0000
          0.0000      0.10000      0.10000     -0.50000       10.000
         0.42000      0.34700      0.30000       0.0000       7.0000
         0.20000       0.0000      0.60000      0.50000       0.0000
          0.0000       0.0000       0.0000    /
     38 'GENROU' 1     7.6100      0.43000E-01  0.84000      0.65000E-01
          5.3200       0.0000       1.6430       1.5730      0.31690
         0.47930      0.24600      0.19220      0.10710      0.52350      /
     38 'IEEET1' 1     0.0000       40.000      0.20000E-01   5.2000
         -4.1600       1.0000      0.83000      0.30000E-01   1.0000
          0.0000       2.8000      0.41000E-01   3.8000      0.36800    /
     38 'IEESGO' 1     0.0000       0.0000      0.20000E-01  0.67300
          3.0000      0.45000       14.300      0.70000       1.0000
          10.000      0.50000      /
     39 'GENCLS' 1     500.00       10.000      /
     39 'IEEET1' 1     0.0000       40.000      0.20000E-01   5.2000
         -4.1600       1.0000      0.83000      0.30000E-01   1.0000
          0.0000       2.8000      0.41000E-01   3.8000      0.36800    /
     33 'WT4G1' 1      0.20000E-01  0.20000E-01  0.40000      0.90000
          1.1100       1.2000       2.0000       2.0000       0.0000      /
     33  'WT4E1'  1              0         0         0         0
         0.15000              18.000              0.0000             0.50000E-01         0.10000
          0.0000             0.80000E-01         0.47000            -0.47000              1.1000
          0.0000             0.50000            -0.50000             0.50000E-01         0.10000E-01
         0.90000              1.1000              80.000             0.50000E-01         0.50000E-01
          1.7000              0.9100              0.2000     /
